5

 C                 -3.48725743   -0.22136695    0.13418677
 C                 -2.04480000    0.18640000    0.36430000
 C                 -1.13913186    0.01967349   -0.87565006
 C                  0.26235240    0.45165632   -0.61036396
 C                  1.29045239   -0.44307056   -0.40617747
 C                  2.61299236   -0.12671309   -0.12755403
 H                 -1.18917169   -1.03180178   -1.17011845
 H                 -1.59436428    0.61784421   -1.67142871
 H                  0.45150702    1.51568462   -0.53453910
 H                  1.07908469   -1.50653932   -0.47052559
 F                 -3.65728805   -1.52025377   -0.10917754
 F                 -4.11975810    0.51032484   -0.78208994
 F                 -2.04605132    1.49472802    0.76508849
 Cl                 3.80740237   -1.36249051    0.06897767
 Cl                 3.18463514    1.49622117    0.03315814
 C                 -1.50546437   -0.65959676    1.53263495
 H                 -0.54843005   -1.13733784    1.20135840
 C                 -2.52043370   -1.73722878    1.90187444
 C                 -1.24573169    0.23432398    2.74143620
 H                 -2.71066303   -2.39415023    1.01212151
 C                 -3.82529344   -1.07693195    2.33675937
 C                 -1.97122855   -2.57925893    3.04952100
 H                 -0.49908120    1.02651113    2.46875833
 C                 -2.55203110    0.89235440    3.17541578
 C                 -0.69791010   -0.61000041    3.88806546
 H                 -4.57912318   -1.86246685    2.59863490
 H                 -4.24017736   -0.46585940    1.49510147
 C                 -3.56827259   -0.18344807    3.54647241
 H                 -1.01882224   -3.07620149    2.73349176
 H                 -2.70667100   -3.37968907    3.31852723
 C                 -1.71203108   -1.68747018    4.26000843
 H                 -2.95431390    1.52298538    2.34210716
 H                 -2.36682282    1.55909325    4.05578852
 H                  0.26712537   -1.08736912    3.58026509
 H                 -0.49414205    0.04181256    4.77549476
 H                 -4.52864706    0.30164378    3.86546665
 C                 -3.01781593   -1.02725553    4.69221343
 H                 -1.30809568   -2.30782298    5.10344615
 H                 -2.83725753   -0.37960434    5.58767950
 H                 -3.76359508   -1.81232051    4.97751935


